<?xml version="1.0" encoding="UTF-8" ?>
<routes>
	<address>
		<methods>GET</methods>
		<actions>Agora\Bundles\Address\Controller\Controller:fetchOne</actions>
		<priority>0</priority>
		<pattern>/api/v1/address[/{id}]</pattern>
		<middleware>TokenAuthentication</middleware>
		<roles>User</roles>
		<roles>Admin</roles>
	</address>
	<login>
		<methods>POST</methods>
		<actions>Agora\Bundles\Contact\Controller\Controller:authenticateOne</actions>
		<priority>0</priority>
		<pattern>/api/v1/user/login</pattern>
		<middleware />
	</login>
	<industries>
		<methods>GET</methods>
		<methods>POST</methods>
		<methods>PUT</methods>
		<methods>DELETE</methods>
		<actions>Agora\Bundles\Industries\Controller\Controller:autoComplete</actions>
		<actions>Agora\Bundles\Industries\Controller\Controller:onAdd</actions>
		<actions>Agora\Bundles\Industries\Controller\Controller:onUpdate</actions>
		<actions>Agora\Bundles\Industries\Controller\Controller:onDelete</actions>
		<priority>0</priority>
		<pattern>/api/v1/industries/{description}</pattern>
		<pattern>/api/v1/admin/industry</pattern>
		<pattern>/api/v1/admin/industry/{id}</pattern>
		<pattern>/api/v1/admin/industry/{id}</pattern>
		<middleware>TokenAuthentication</middleware>
		<middleware>TokenAuthentication</middleware>
		<middleware>TokenAuthentication</middleware>
		<middleware>TokenAuthentication</middleware>
		<roles>User</roles>
		<roles>Admin</roles>
		<roles>Admin</roles>
		<roles>Admin</roles>
		<roles>Admin</roles>
	</industries>
	<location>
		<methods>GET</methods>
		<methods>POST</methods>
		<methods>PUT</methods>
		<methods>DELETE</methods>
		<actions>Agora\Bundles\Locations\Controller\Controller:onGet</actions>
		<actions>Agora\Bundles\Locations\Controller\Controller:onAdd</actions>
		<actions>Agora\Bundles\Locations\Controller\Controller:onUpdate</actions>
		<actions>Agora\Bundles\Locations\Controller\Controller:onDelete</actions>
		<priority>0</priority>
		<pattern>/api/v1/location/{offset}/{industry}</pattern>
		<pattern>/api/v1/location</pattern>
		<pattern>/api/v1/location</pattern>
		<pattern>/api/v1/location/{id}</pattern>
		<middleware>TokenAuthentication</middleware>
		<middleware>TokenAuthentication</middleware>
		<middleware>TokenAuthentication</middleware>
		<middleware>TokenAuthentication</middleware>
		<roles>User</roles>
		<roles>Admin</roles>
		<roles>User</roles>
		<roles>Admin</roles>
		<roles>User</roles>
		<roles>Admin</roles>
		<roles>User</roles>
		<roles>Admin</roles>
	</location>
	<roles>
		<methods>GET</methods>
		<methods>POST</methods>
		<methods>PUT</methods>
		<methods>DELETE</methods>
		<actions>Agora\Bundles\Roles\Controller\Controller:onGet</actions>
		<actions>Agora\Bundles\Roles\Controller\Controller:onAdd</actions>
		<actions>Agora\Bundles\Roles\Controller\Controller:onUpdate</actions>
		<actions>Agora\Bundles\Roles\Controller\Controller:onDelete</actions>
		<priority>0</priority>
		<pattern>/api/v1/roles/{offset}[/{id}]</pattern>
		<pattern>/api/v1/admin/role</pattern>
		<pattern>/api/v1/admin/role</pattern>
		<pattern>/api/v1/admin/role/{id}</pattern>
		<middleware>TokenAuthentication</middleware>
		<middleware>TokenAuthentication</middleware>
		<middleware>TokenAuthentication</middleware>
		<middleware>TokenAuthentication</middleware>
		<roles>Guest</roles>
		<roles>User</roles>
		<roles>Admin</roles>
		<roles>Admin</roles>
		<roles>Admin</roles>
		<roles>Admin</roles>
	</roles>
	<contact>
		<methods>GET</methods>
		<methods>POST</methods>
		<methods>PUT</methods>
		<methods>DELETE</methods>
		<actions>Agora\Bundles\Contact\Controller\Controller:onGet</actions>
		<actions>Agora\Bundles\Contact\Controller\Controller:onAdd</actions>
		<actions>Agora\Bundles\Contact\Controller\Controller:onUpdate</actions>
		<actions>Agora\Bundles\Contact\Controller\Controller:onDelete</actions>
		<priority>0</priority>
		<pattern>/api/v1/admin/users</pattern>
		<pattern>/api/v1/user</pattern>
		<pattern>/api/v1/user</pattern>
		<pattern>/api/v1/admin/user/{id}</pattern>
		<middleware>TokenAuthentication</middleware>
		<middleware>TokenAuthentication</middleware>
		<middleware>TokenAuthentication</middleware>
		<middleware>TokenAuthentication</middleware>
		<roles>Admin</roles>
		<roles>Guest</roles>
		<roles>User</roles>
		<roles>Admin</roles>
		<roles>User</roles>
		<roles>Admin</roles>
		<roles>Admin</roles>
	</contact>
	<pages>
		<methods>GET</methods>
		<methods>POST</methods>
		<methods>PUT</methods>
		<methods>DELETE</methods>
		<actions>Agora\Bundles\Pages\Controller\Controller:onGet</actions>
		<actions>Agora\Bundles\Pages\Controller\Controller:onAdd</actions>
		<actions>Agora\Bundles\Pages\Controller\Controller:onUpdate</actions>
		<actions>Agora\Bundles\Pages\Controller\Controller:onDelete</actions>
		<priority>0</priority>
		<pattern>/api/v1/pages</pattern>
		<pattern>/api/v1/admin/page</pattern>
		<pattern>/api/v1/admin/page</pattern>
		<pattern>/api/v1/admin/page/{id}</pattern>
		<middleware>TokenAuthentication</middleware>
		<middleware>TokenAuthentication</middleware>
		<middleware>TokenAuthentication</middleware>
		<middleware>TokenAuthentication</middleware>
		<roles>Guest</roles>
		<roles>User</roles>
		<roles>Admin</roles>
		<roles>User</roles>
		<roles>Admin</roles>
		<roles>User</roles>
		<roles>Admin</roles>
		<roles>Admin</roles>
	</pages>
</routes>
